  24
        -31.76545229
 C         -1.7294172945       -1.3765350889        0.2431180697
 C         -1.4660131689       -0.5992431967        1.3530093042
 C         -1.4908341536        0.7772778327        1.2533003806
 C         -1.7790526816        1.3765663487        0.0436643436
 C         -2.0422556119        0.5993175752       -1.0663572821
 C         -2.0174247537       -0.7772774717       -0.9666231342
 H         -1.7044419633       -2.4514255115        0.3197475169
 H         -1.2340216070       -1.0671066919        2.2959585248
 H         -1.2783346059        1.3841169591        2.1184360123
 H         -1.7931236262        2.4514798158       -0.0354022737
 H         -2.2631042453        1.0673190950       -2.0119289876
 H         -2.2186625300       -1.3842484672       -1.8343749611
 C          2.0749647016        0.0298758355        1.1989586708
 C          1.9096223990        1.2101141704        0.5023334133
 C          1.5887479976        1.1801581051       -0.8399052159
 C          1.4331322698       -0.0299137139       -1.4855804805
 C          1.5987087094       -1.2100971733       -0.7890614622
 C          1.9197159216       -1.1802538309        0.5531441511
 H          2.3217081993        0.0532562781        2.2479953016
 H          2.0263760771        2.1550454527        1.0076741382
 H          1.4532922881        2.1016892206       -1.3824075715
 H          1.1751572576       -0.0532537137       -2.5318930736
 H          1.4711001968       -2.1549705836       -1.2918627538
 H          2.0453137548       -2.1017754399        1.0980490873
