  18
  -18.986715850000000       0.49983752416455807      !mtd4
 C         -1.4291104374        0.2291375424       -0.2415004325
 C         -0.5160690313        1.3521981264        0.2415257586
 C          0.9130270249        1.1229893055       -0.2416369865
 C          1.4290758096       -0.2291674967        0.2417114358
 C          0.5160715237       -1.3521302609       -0.2417167668
 C         -0.9129709991       -1.1230402369        0.2416142578
 H         -2.4455011190        0.3921678883        0.1237691008
 H         -0.8833329875        2.3138700141       -0.1237400933
 H          0.9335658113        1.1481602463       -1.3338451582
 H          2.4455718429       -0.3922386180       -0.1232377131
 H          0.5275784314       -1.3823253139       -1.3339359013
 H         -0.9333335210       -1.1483051810        1.3338158765
 H          0.8833206196       -2.3139060336        0.1232657444
 H          1.4609898382       -0.2343032679        1.3339176021
 H          1.5625150746        1.9217456853        0.1234642204
 H         -0.5276007402        1.3828076962        1.3337226031
 H         -1.4615300745        0.2342355388       -1.3336972787
 H         -1.5625278744       -1.9217534944       -0.1234664279
  18
  -18.986715820000001       0.49982165665229983      !mtd9
 C         -1.4289543520        0.2292442123        0.2415713529
 C         -0.5160003822        1.3522119467       -0.2417638189
 C          0.9129006530        1.1230139975        0.2418282683
 C          1.4289624932       -0.2290460237       -0.2417032105
 C          0.5161513022       -1.3522956425        0.2414459830
 C         -0.9130481271       -1.1230842460       -0.2413901938
 H         -1.4610072934        0.2346622524        1.3338006548
 H         -0.5272071460        1.3820482280       -1.3340393414
 H          1.5624140826        1.9219607358       -0.1227879830
 H          1.4609853750       -0.2338776868       -1.3339118163
 H          0.8831797490       -2.3139748816       -0.1240604782
 H         -1.5622389961       -1.9218086345        0.1243592003
 H          0.5280118403       -1.3829391968        1.3336467677
 H          2.4454425314       -0.3921824330        0.1233141081
 H          0.9330228995        1.1479037704        1.3340565320
 H         -0.8831583449        2.3141704640        0.1228346584
 H         -2.4454622534        0.3922446411       -0.1234635274
 H         -0.9341205258       -1.1487345123       -1.3336103127
  18
  -18.978132909999999        5.6804499557918138E-005 !md4
 C         -1.3550983199        0.1733877423        0.4057762100
 C         -0.5403284051        1.4158467840        0.0248379949
 C          0.8903763816        1.0443122115       -0.3845717713
 C          1.3596589011       -0.1854783633        0.3844666214
 C          0.5403237527       -1.4158656302       -0.0246690533
 C         -0.8949581210       -1.0322065767       -0.4058743315
 H         -1.2281234657       -0.0481152907        1.4671909781
 H         -1.0257497603        1.9377988641       -0.8023255869
 H          0.9310529025        0.8270850774       -1.4536138670
 H          2.4193361937       -0.3674522450        0.1962799795
 H          1.0158719152       -1.9120094474       -0.8729538786
 H         -1.5619081088       -1.8793755452       -0.2357219329
 H          0.5259470347       -2.1280837965        0.8026421291
 H          1.2453764082        0.0035266436        1.4535217829
 H          1.5593930946        1.8860476836       -0.1964727773
 H         -0.5160618639        2.1024028432        0.8734765930
 H         -2.4169332232        0.3607490620        0.2356678412
 H         -0.9478935450       -0.7825281791       -1.4672821577
  18
  -18.978132899999999        5.6803898458764674E-005 !mtd14
 C         -1.4963893840        0.2398293316       -0.0247352894
 C         -0.4591191757        1.2930472219        0.3844767261
 C          0.8406274813        1.0848769196       -0.3844815637
 C          1.4963109089       -0.2400120384        0.0246031256
 C          0.4462609320       -1.2909172528        0.4060368962
 C         -0.8276953499       -1.0868541901       -0.4059186047
 H         -2.1906126495        0.0801703441        0.8026410584
 H         -0.8535993387        2.2933119003        0.1963335581
 H          0.6199666460        1.0804761216       -1.4535695207
 H          2.1056327403       -0.6086854192       -0.8029570069
 H          0.8464382240       -2.2921801606        0.2365495464
 H         -1.5209069630       -1.9127918796       -0.2360167991
 H          0.2032559997       -1.2114192977        1.4672902127
 H          2.1640664502       -0.0763521457        0.8727840684
 H          1.5280083572        1.9116210835       -0.1960392448
 H         -0.2507087390        1.2197061894        1.4535388818
 H         -2.0792408275        0.6040900458       -0.8730512490
 H         -0.5722452330       -1.0875891774       -1.4672805425
  18
  -18.978132890000001        5.6803297366185581E-005 !mtd4
 C         -1.3413572806        0.2589229151        0.4059025013
 C         -0.5274336019        1.2603926176       -0.4055595678
 C          0.9561380470        1.1758531973       -0.0250939402
 C          1.3493465482       -0.2488994113        0.3846223214
 C          0.5192725169       -1.2703469105       -0.3844284885
 C         -0.9559367367       -1.1759048347        0.0245229338
 H         -1.1516595844        0.4294859857        1.4673921560
 H         -0.6563538630        1.0402702820       -1.4669624635
 H          1.5625446045        1.4977525921       -0.8740209947
 H          2.4129365194       -0.4075883203        0.1972134694
 H          0.6262401668       -1.0772668519       -1.4535661001
 H         -1.1479697637       -1.8359685290        0.8727616459
 H          0.8915258567       -2.2790518615       -0.1957993291
 H          1.1808828698       -0.3924032340        1.4536597812
 H          1.1658393752        1.8574016664        0.8016886278
 H         -0.8958360823        2.2736052783       -0.2348226073
 H         -2.4085399045        0.4128964264        0.2358037716
 H         -1.5799616570       -1.5193428560       -0.8029399235
  18
  -18.978132880000000        5.6802696279753678E-005 !md3
 C         -1.4963987608        0.2399410797       -0.0248749928
 C         -0.4464151757        1.2912270143       -0.4057647166
 C          0.8277006652        1.0867550403        0.4059724731
 C          1.4963183888       -0.2399165321        0.0245957271
 C          0.4591678499       -1.2932505164       -0.3844985908
 C         -0.8404070449       -1.0847236896        0.3846173399
 H         -2.1065894289        0.6084664232        0.8020330487
 H         -0.2033982724        1.2122810241       -1.4671596304
 H          1.5209003966        1.9126308054        0.2360514557
 H          2.1903694516       -0.0803559924       -0.8029331300
 H          0.2506237156       -1.2200884392       -1.4535692216
 H         -0.6194126681       -1.0798789039        1.4535750854
 H          0.8536120467       -2.2934623903       -0.1962418291
 H          2.0793163340       -0.6041513128        0.8727813130
 H          0.5724519611        1.0873806123        1.4673584517
 H         -0.8466176396        2.2925550976       -0.2356433627
 H         -2.1632854728        0.0758362086       -0.8736148434
 H         -1.5275643271       -1.9115991944        0.1967997124
  18
  -18.978132880000000        5.6802696279753678E-005 !mtd7
 C         -1.3597476621        0.1854962388       -0.3845509979
 C         -0.5403730801        1.4158339881        0.0247624089
 C          0.8949405183        1.0320426950        0.4059347719
 C          1.3550396426       -0.1734153329       -0.4059510846
 C          0.5404498173       -1.4158084300       -0.0247436338
 C         -0.8903247993       -1.0441632772        0.3845897187
 H         -2.4194825881        0.3673810647       -0.1963580989
 H         -0.5257656739        2.1279355209       -0.8028690456
 H          1.5619698814        1.8791931939        0.2357221627
 H          1.2280603829        0.0480994345       -1.4673435265
 H          0.5165294655       -2.1026493061       -0.8730497913
 H         -0.9310782885       -0.8270470955        1.4536125822
 H          1.0257470738       -1.9372223575        0.8026447054
 H          2.4168741444       -0.3607641226       -0.2359593201
 H          0.9480322720        0.7823967950        1.4673822754
 H         -1.0160483461        1.9122346119        0.8730529829
 H         -1.2453662244       -0.0035175538       -1.4536565467
 H         -1.5592866334       -1.8858719405        0.1963308461
  18
  -18.978132870000000        5.6802095199682409E-005 !mtd4
 C         -1.3496781547        0.2489248511       -0.3843035754
 C         -0.5191223104        1.2702441035        0.3844825464
 C          0.9560629199        1.1758876437       -0.0248958342
 C          1.3414364162       -0.2590190683       -0.4058237132
 C          0.5272363724       -1.2599598749        0.4061040875
 C         -0.9559247889       -1.1760628254        0.0244346994
 H         -2.4129928153        0.4073570384       -0.1954842428
 H         -0.8915310311        2.2788910839        0.1963766890
 H          1.1481104675        1.8357859619       -0.8733142065
 H          1.1516441932       -0.4299730961       -1.4672066655
 H          0.8958180510       -2.2732545927        0.2364801962
 H         -1.5630737246       -1.4994437420        0.8722309609
 H          0.6551736162       -1.0390050749        1.4674284992
 H          2.4085714509       -0.4130178261       -0.2356130743
 H          1.5802038394        1.5196387531        0.8024783804
 H         -0.6255727138        1.0766464964        1.4535534801
 H         -1.1824820505        0.3929242243       -1.4534034888
 H         -1.1639938675       -1.8567259496       -0.8035052022
