  18
        -18.98671585
 C         -1.4291104990        0.2291371581       -0.2415004325
 C         -0.5160693949        1.3521979876        0.2415257586
 C          0.9130267229        1.1229895510       -0.2416369865
 C          1.4290758712       -0.2291671124        0.2417114358
 C          0.5160718873       -1.3521301221       -0.2417167668
 C         -0.9129706971       -1.1230404824        0.2416142578
 H         -2.4455012245        0.3921672307        0.1237691008
 H         -0.8833336097        2.3138697766       -0.1237400933
 H          0.9335655025        1.1481604974       -1.3338451582
 H          2.4455719484       -0.3922379603       -0.1232377131
 H          0.5275788031       -1.3823251720       -1.3339359013
 H         -0.9333332122       -1.1483054320        1.3338158765
 H          0.8833212419       -2.3139057961        0.1232657444
 H          1.4609899012       -0.2343028750        1.3339176021
 H          1.5625145578        1.9217461055        0.1234642204
 H         -0.5276011121        1.3828075543        1.3337226031
 H         -1.4615301375        0.2342351458       -1.3336972787
 H         -1.5625273576       -1.9217539146       -0.1234664279
