  18
        -18.98671585
 C         -1.4291104990        0.2291371581       -0.2415004325
 C         -0.5160693949        1.3521979876        0.2415257586
 C          0.9130267229        1.1229895510       -0.2416369865
 C          1.4290758712       -0.2291671124        0.2417114358
 C          0.5160718873       -1.3521301221       -0.2417167668
 C         -0.9129706971       -1.1230404824        0.2416142578
 H         -2.4455012245        0.3921672307        0.1237691008
 H         -0.8833336097        2.3138697766       -0.1237400933
 H          0.9335655025        1.1481604974       -1.3338451582
 H          2.4455719484       -0.3922379603       -0.1232377131
 H          0.5275788031       -1.3823251720       -1.3339359013
 H         -0.9333332122       -1.1483054320        1.3338158765
 H          0.8833212419       -2.3139057961        0.1232657444
 H          1.4609899012       -0.2343028750        1.3339176021
 H          1.5625145578        1.9217461055        0.1234642204
 H         -0.5276011121        1.3828075543        1.3337226031
 H         -1.4615301375        0.2342351458       -1.3336972787
 H         -1.5625273576       -1.9217539146       -0.1234664279
  18
        -18.97813291
 C         -1.3550983665        0.1733873779        0.4057762100
 C         -0.5403287859        1.4158466387        0.0248379949
 C          0.8903761007        1.0443124510       -0.3845717713
 C          1.3596589510       -0.1854779977        0.3844666214
 C          0.5403241335       -1.4158654849       -0.0246690533
 C         -0.8949578434       -1.0322068174       -0.4058743315
 H         -1.2281234528       -0.0481156210        1.4671909781
 H         -1.0257502814        1.9377985883       -0.8023255869
 H          0.9310526800        0.8270853278       -1.4536138670
 H          2.4193362925       -0.3674515944        0.1962799795
 H          1.0158724294       -1.9120091742       -0.8729538786
 H         -1.5619076034       -1.8793759652       -0.2357219329
 H          0.5259476070       -2.1280836551        0.8026421291
 H          1.2453764073        0.0035269785        1.4535217829
 H          1.5593925874        1.8860481030       -0.1964727773
 H         -0.5160624293        2.1024027044        0.8734765930
 H         -2.4169333202        0.3607484120        0.2356678412
 H         -0.9478933346       -0.7825284340       -1.4672821577
